
#######################################################################
#
#                 Cambridge Crystallographic Data Centre
#                                CCDC 
#
#######################################################################
#
# If this CIF has been generated from an entry in the Cambridge 
# Structural Database, then it will include bibliographic, chemical, 
# crystal, experimental, refinement or atomic coordinate data resulting 
# from the CCDC's data processing and validation procedures.
#
#######################################################################

data_BEVRAW
_symmetry_cell_setting           tetragonal
_symmetry_space_group_name_H-M   'I -4 m 2'
_symmetry_Int_Tables_number      119
_space_group_name_Hall           'I -4 -2'
loop_
_symmetry_equiv_pos_site_id
_symmetry_equiv_pos_as_xyz
1 x,y,z
2 y,-x,-z
3 -x,y,z
4 -x,-y,z
5 y,x,-z
6 -y,x,-z
7 x,-y,z
8 -y,-x,-z
9 1/2+x,1/2+y,1/2+z
10 1/2+y,1/2-x,1/2-z
11 1/2-x,1/2+y,1/2+z
12 1/2-x,1/2-y,1/2+z
13 1/2+y,1/2+x,1/2-z
14 1/2-y,1/2+x,1/2-z
15 1/2+x,1/2-y,1/2+z
16 1/2-y,1/2-x,1/2-z
_cell_length_a                   11.2558(2)
_cell_length_b                   11.2558(2)
_cell_length_c                   8.4288(2)
_cell_angle_alpha                90
_cell_angle_beta                 90
_cell_angle_gamma                90
_cell_volume                     1067.87
loop_
_atom_site_label
_atom_site_type_symbol
_atom_site_fract_x
_atom_site_fract_y
_atom_site_fract_z
Zr1 Zr 0.5000 0.0000 0.2500
Ca1 Ca 0.5000 0.5000 0.5000
Ca2 Ca 0.5000 0.5000 0.0000
O1 O 0.5000 0.3730(5) 0.238(2)
O2 O 0.5000 0.1925(6) 0.1859(8)
O3 O 0.5000 0.2902(8) 0.6092(9)
O4 O 0.5000 0.1223(5) 0.485(1)
O5 O 0.5000 0.306(1) -0.069(1)
C1 C 0.5000 0.2684(6) 0.2956(8)
C2 C 0.5000(6) 0.2341 0.4714(8)

#END
