
#######################################################################
#
#                 Cambridge Crystallographic Data Centre
#                                CCDC 
#
#######################################################################
#
# If this CIF has been generated from an entry in the Cambridge 
# Structural Database, then it will include bibliographic, chemical, 
# crystal, experimental, refinement or atomic coordinate data resulting 
# from the CCDC's data processing and validation procedures.
#
#######################################################################

data_DOYBEA
_symmetry_cell_setting           monoclinic
_symmetry_space_group_name_H-M   'P 21/c'
_symmetry_Int_Tables_number      14
_space_group_name_Hall           '-P 2ybc'
loop_
_symmetry_equiv_pos_site_id
_symmetry_equiv_pos_as_xyz
1 x,y,z
2 -x,1/2+y,1/2-z
3 -x,-y,-z
4 x,1/2-y,1/2+z
_cell_length_a                   6.8419(30)
_cell_length_b                   12.0877(22)
_cell_length_c                   14.207(10)
_cell_angle_alpha                90
_cell_angle_beta                 122.547(62)
_cell_angle_gamma                90
_cell_volume                     990.432
loop_
_atom_site_label
_atom_site_type_symbol
_atom_site_fract_x
_atom_site_fract_y
_atom_site_fract_z
_atom_site_U_iso_or_equiv
_atom_site_thermal_displace_type
Al1 Al 0.50000 0.50000 0.00000 0.0000 Uiso
Al2 Al 0.00000 0.50000 0.00000 0.0000 Uiso
O1 O 0.24705 0.40015 0.11591 0.0000 Uiso
O2 O 0.53844 0.36877 0.08438 0.0000 Uiso
O3 O 0.4506 0.0933 0.37967 0.0000 Uiso
O4 O 0.78276 0.11334 0.39942 0.0000 Uiso
C1 C 0.42977 0.34699 0.13382 0.0000 Uiso
C2 C 0.55444 0.26496 0.22203 0.0000 Uiso
C3 C 0.45578 0.22792 0.27381 0.0000 Uiso
C4 C 0.57869 0.14099 0.3604 0.0000 Uiso
H1 H 0.72968 0.23217 0.24306 0.0507 Uiso
H2 H 0.27772 0.25787 0.25162 0.0507 Uiso
O5 O 0.81988 0.48269 0.05985 0.0000 Uiso
H3 H 0.92295 0.52558 0.13066 0.0507 Uiso

#END
