
#######################################################################
#
#                 Cambridge Crystallographic Data Centre
#                                CCDC 
#
#######################################################################
#
# If this CIF has been generated from an entry in the Cambridge 
# Structural Database, then it will include bibliographic, chemical, 
# crystal, experimental, refinement or atomic coordinate data resulting 
# from the CCDC's data processing and validation procedures.
#
#######################################################################

data_MABJUV
_symmetry_cell_setting           monoclinic
_symmetry_space_group_name_H-M   'C 2/c'
_symmetry_Int_Tables_number      15
_space_group_name_Hall           '-C 2yc'
loop_
_symmetry_equiv_pos_site_id
_symmetry_equiv_pos_as_xyz
1 x,y,z
2 1/2+x,1/2+y,z
3 -x,y,1/2-z
4 1/2-x,1/2+y,1/2-z
5 -x,-y,-z
6 1/2-x,1/2-y,-z
7 x,-y,1/2+z
8 1/2+x,1/2-y,1/2+z
_cell_length_a                   21.351(2)
_cell_length_b                   13.1381(13)
_cell_length_c                   8.5699(9)
_cell_angle_alpha                90
_cell_angle_beta                 101.007(2)
_cell_angle_gamma                90
_cell_volume                     2359.73
loop_
_atom_site_label
_atom_site_type_symbol
_atom_site_fract_x
_atom_site_fract_y
_atom_site_fract_z
_atom_site_U_iso_or_equiv
_atom_site_thermal_displace_type
Cu1 Cu 0.302182(15) 0.29456(3) 0.07568(4) 0.0123 Uani
N1 N 0.37958(11) 0.3723(2) 0.2283(3) 0.0164 Uani
O1 O 0.33266(10) 0.15573(16) 0.1346(3) 0.0184 Uani
O2 O 0.24366(10) 0.08061(16) 0.0091(3) 0.0211 Uani
O3 O 0.24667(10) -0.20829(16) 0.2512(3) 0.0184 Uani
O4 O 0.33698(11) -0.27828(17) 0.3801(3) 0.0218 Uani
C1 C 0.29854(14) 0.0790(2) 0.0941(3) 0.0146 Uani
C2 C 0.32458(15) -0.0224(2) 0.1583(3) 0.0174 Uani
H1 H 0.3058 -0.0392 0.2522 0.0210 Uiso
H2 H 0.3712 -0.0156 0.1951 0.0210 Uiso
C3 C 0.31212(15) -0.1107(2) 0.0414(3) 0.0171 Uani
H3 H 0.3346 -0.0981 -0.0476 0.0210 Uiso
H4 H 0.2658 -0.1147 -0.0030 0.0210 Uiso
C4 C 0.33457(15) -0.2124(2) 0.1204(4) 0.0170 Uani
H5 H 0.3244 -0.2677 0.0412 0.0200 Uiso
H6 H 0.3815 -0.2106 0.1561 0.0200 Uiso
C5 C 0.30359(14) -0.2352(2) 0.2614(3) 0.0149 Uani
C6 C 0.38007(17) 0.4726(3) 0.2419(5) 0.0394 Uani
H7 H 0.3473 0.5104 0.1764 0.0470 Uiso
C7 C 0.42610(19) 0.5249(3) 0.3469(6) 0.0468 Uani
H8 H 0.4244 0.5971 0.3521 0.0560 Uiso
C8 C 0.47442(14) 0.4730(2) 0.4440(3) 0.0166 Uani
C9 C 0.47312(17) 0.3688(3) 0.4310(4) 0.0302 Uani
H9 H 0.5050 0.3289 0.4956 0.0360 Uiso
C10 C 0.42512(18) 0.3222(3) 0.3233(4) 0.0307 Uani
H10 H 0.4250 0.2500 0.3175 0.0370 Uiso
loop_
_atom_site_aniso_label
_atom_site_aniso_U_11
_atom_site_aniso_U_22
_atom_site_aniso_U_33
_atom_site_aniso_U_23
_atom_site_aniso_U_13
_atom_site_aniso_U_12
Cu1 0.0149(2) 0.0096(2) 0.0106(2) -0.00126(13) -0.00188(13) -0.00184(13)
N1 0.0158(11) 0.0177(13) 0.0144(12) -0.0027(10) -0.0007(10) -0.0042(10)
O1 0.0185(10) 0.0112(10) 0.0234(11) -0.0005(9) -0.0011(9) 0.0001(8)
O2 0.0236(11) 0.0127(11) 0.0217(11) 0.0024(9) -0.0091(9) -0.0022(9)
O3 0.0186(10) 0.0204(11) 0.0150(10) 0.0024(9) 0.0000(8) 0.0016(8)
O4 0.0231(11) 0.0259(12) 0.0157(11) 0.0072(9) 0.0023(9) 0.0100(9)
C1 0.0210(14) 0.0126(14) 0.0098(13) 0.0005(11) 0.0017(11) 0.0012(11)
C2 0.0238(15) 0.0124(14) 0.0135(14) 0.0026(12) -0.0024(12) 0.0008(12)
C3 0.0264(15) 0.0132(14) 0.0109(13) 0.0003(12) 0.0013(12) -0.0005(12)
C4 0.0255(15) 0.0105(14) 0.0148(14) 0.0000(11) 0.0031(12) 0.0030(11)
C5 0.0214(14) 0.0088(13) 0.0130(14) -0.0024(11) -0.0006(11) -0.0002(11)
C6 0.0259(17) 0.0183(17) 0.061(3) -0.0134(18) -0.0244(17) 0.0058(14)
C7 0.034(2) 0.0157(17) 0.075(3) -0.0215(19) -0.029(2) 0.0091(15)
C8 0.0153(13) 0.0181(15) 0.0156(14) -0.0062(12) 0.0009(11) -0.0030(12)
C9 0.0329(18) 0.0176(16) 0.0305(19) 0.0050(14) -0.0178(15) -0.0058(14)
C10 0.0357(19) 0.0143(15) 0.033(2) 0.0016(14) -0.0162(16) -0.0068(14)

#END
