
#######################################################################
#
#                 Cambridge Crystallographic Data Centre
#                                CCDC 
#
#######################################################################
#
# If this CIF has been generated from an entry in the Cambridge 
# Structural Database, then it will include bibliographic, chemical, 
# crystal, experimental, refinement or atomic coordinate data resulting 
# from the CCDC's data processing and validation procedures.
#
#######################################################################

data_NUDLIJ
_symmetry_cell_setting           monoclinic
_symmetry_space_group_name_H-M   'P 21/n'
_symmetry_Int_Tables_number      14
_space_group_name_Hall           '-P 2yn'
loop_
_symmetry_equiv_pos_site_id
_symmetry_equiv_pos_as_xyz
1 x,y,z
2 1/2-x,1/2+y,1/2-z
3 -x,-y,-z
4 1/2+x,1/2-y,1/2+z
_cell_length_a                   10.8609(7)
_cell_length_b                   14.3088(9)
_cell_length_c                   17.0198(12)
_cell_angle_alpha                90
_cell_angle_beta                 105.940(2)
_cell_angle_gamma                90
_cell_volume                     2543.29
loop_
_atom_site_label
_atom_site_type_symbol
_atom_site_fract_x
_atom_site_fract_y
_atom_site_fract_z
_atom_site_U_iso_or_equiv
_atom_site_thermal_displace_type
Mg1 Mg -0.05038(6) 0.47079(4) -0.09147(4) 0.0037 Uani
Mg2 Mg 0.24975(6) 0.59083(4) -0.00049(4) 0.0033 Uani
Mg3 Mg 0.45195(6) 0.53112(4) -0.09010(4) 0.0036 Uani
N1 N -0.12482(15) 0.56741(10) -0.19594(10) 0.0057 Uani
O1 O -0.23063(12) 0.50952(9) -0.08347(8) 0.0060 Uani
O2 O -0.41213(13) 0.58620(9) -0.13935(8) 0.0095 Uani
O3 O -0.35440(12) 0.85168(9) -0.33840(8) 0.0088 Uani
O4 O -0.23486(12) 0.80290(9) -0.41869(8) 0.0077 Uani
C1 C -0.23634(17) 0.60801(12) -0.19505(11) 0.0045 Uani
C2 C -0.29028(18) 0.68201(13) -0.24561(12) 0.0061 Uani
H1 H -0.369(2) 0.7091(14) -0.2414(12) 0.0070 Uiso
C3 C -0.22722(18) 0.71441(12) -0.30126(11) 0.0059 Uani
C4 C -0.11467(18) 0.67038(13) -0.30519(12) 0.0072 Uani
H2 H -0.072(2) 0.6882(14) -0.3427(13) 0.0090 Uiso
C5 C -0.06674(19) 0.59794(13) -0.25110(12) 0.0072 Uani
H3 H 0.009(2) 0.5671(14) -0.2506(12) 0.0090 Uiso
C6 C -0.29950(18) 0.56561(12) -0.13444(11) 0.0043 Uani
C7 C -0.27654(17) 0.79626(12) -0.35703(11) 0.0051 Uani
O5 O 0.44690(12) 0.57922(9) 0.02175(8) 0.0043 Uani
H4 H 0.476(2) 0.6258(15) 0.0351(13) 0.0050 Uiso
O6 O 0.04918(12) 0.58022(9) -0.02136(8) 0.0044 Uani
H5 H 0.021(2) 0.6278(15) -0.0363(13) 0.0050 Uiso
N2 N 0.37992(15) 0.42958(10) -0.19272(9) 0.0048 Uani
O7 O 0.26764(12) 0.49036(9) -0.08473(8) 0.0060 Uani
O8 O 0.08323(12) 0.42057(9) -0.14566(8) 0.0082 Uani
O9 O 0.14802(12) 0.14553(9) -0.33631(8) 0.0084 Uani
O10 O 0.27577(13) 0.19111(9) -0.41253(8) 0.0093 Uani
C8 C 0.26324(17) 0.39413(12) -0.19703(11) 0.0054 Uani
C9 C 0.20849(19) 0.32060(13) -0.24822(12) 0.0066 Uani
H6 H 0.125(2) 0.2980(14) -0.2484(12) 0.0080 Uiso
C10 C 0.27800(18) 0.28161(13) -0.29733(11) 0.0057 Uani
C11 C 0.39720(19) 0.31907(13) -0.29494(12) 0.0075 Uani
H7 H 0.442(2) 0.2967(14) -0.3294(13) 0.0090 Uiso
C12 C 0.44407(19) 0.39267(13) -0.24177(12) 0.0068 Uani
H8 H 0.525(2) 0.4199(14) -0.2369(12) 0.0080 Uiso
C13 C 0.19817(18) 0.43822(12) -0.13838(11) 0.0044 Uani
C14 C 0.22850(18) 0.19895(12) -0.35329(11) 0.0054 Uani
loop_
_atom_site_aniso_label
_atom_site_aniso_U_11
_atom_site_aniso_U_22
_atom_site_aniso_U_33
_atom_site_aniso_U_23
_atom_site_aniso_U_13
_atom_site_aniso_U_12
Mg1 0.0026(3) 0.0048(3) 0.0046(3) -0.0004(2) 0.0024(3) -0.0001(2)
Mg2 0.0036(3) 0.0037(3) 0.0033(3) -0.0002(3) 0.0020(2) 0.0002(3)
Mg3 0.0023(3) 0.0054(3) 0.0038(3) -0.0001(2) 0.0018(3) -0.0003(2)
N1 0.0038(8) 0.0054(8) 0.0083(9) -0.0001(6) 0.0022(7) -0.0001(6)
O1 0.0050(7) 0.0074(6) 0.0064(7) 0.0031(5) 0.0029(5) 0.0019(5)
O2 0.0061(7) 0.0121(7) 0.0117(7) 0.0064(6) 0.0050(6) 0.0030(6)
O3 0.0089(7) 0.0100(7) 0.0089(7) 0.0041(5) 0.0047(6) 0.0047(6)
O4 0.0100(7) 0.0076(7) 0.0075(7) 0.0043(5) 0.0058(6) 0.0027(6)
C1 0.0043(10) 0.0052(9) 0.0040(9) -0.0001(7) 0.0013(7) -0.0012(7)
C2 0.0027(10) 0.0077(9) 0.0085(10) 0.0001(8) 0.0024(8) -0.0001(8)
C3 0.0059(10) 0.0042(9) 0.0067(10) -0.0002(8) 0.0001(8) -0.0006(7)
C4 0.0066(10) 0.0094(10) 0.0078(10) 0.0012(8) 0.0058(8) 0.0001(8)
C5 0.0048(10) 0.0097(10) 0.0093(10) 0.0002(8) 0.0054(8) 0.0023(8)
C6 0.0055(10) 0.0037(9) 0.0036(9) -0.0010(7) 0.0013(8) -0.0001(7)
C7 0.0029(10) 0.0059(9) 0.0068(10) 0.0014(8) 0.0016(8) -0.0015(8)
O5 0.0048(7) 0.0025(6) 0.0055(7) -0.0006(5) 0.0013(5) -0.0011(5)
O6 0.0054(7) 0.0026(6) 0.0051(7) 0.0017(5) 0.0013(5) 0.0015(5)
N2 0.0043(8) 0.0052(8) 0.0055(8) -0.0005(6) 0.0022(7) -0.0004(6)
O7 0.0065(7) 0.0068(6) 0.0057(7) -0.0030(5) 0.0032(6) -0.0014(5)
O8 0.0040(7) 0.0108(7) 0.0109(7) -0.0057(6) 0.0039(6) -0.0015(5)
O9 0.0075(7) 0.0101(7) 0.0094(7) -0.0038(5) 0.0051(6) -0.0048(6)
O10 0.0119(7) 0.0082(7) 0.0098(7) -0.0044(6) 0.0064(6) -0.0036(6)
C8 0.0040(10) 0.0064(9) 0.0057(10) 0.0005(8) 0.0013(8) 0.0002(8)
C9 0.0043(10) 0.0082(9) 0.0075(10) 0.0004(8) 0.0022(8) -0.0007(8)
C10 0.0059(10) 0.0067(9) 0.0043(9) 0.0007(7) 0.0013(8) 0.0011(8)
C11 0.0072(10) 0.0088(10) 0.0082(10) -0.0018(8) 0.0052(8) 0.0023(8)
C12 0.0041(10) 0.0094(10) 0.0074(10) -0.0009(8) 0.0025(8) -0.0024(8)
C13 0.0055(10) 0.0030(9) 0.0058(10) 0.0018(7) 0.0033(8) 0.0016(7)
C14 0.0044(10) 0.0064(9) 0.0052(10) -0.0006(8) 0.0010(8) 0.0016(8)

#END
