
#######################################################################
#
#                 Cambridge Crystallographic Data Centre
#                                CCDC 
#
#######################################################################
#
# If this CIF has been generated from an entry in the Cambridge 
# Structural Database, then it will include bibliographic, chemical, 
# crystal, experimental, refinement or atomic coordinate data resulting 
# from the CCDC's data processing and validation procedures.
#
#######################################################################

data_PIBZOS
_symmetry_cell_setting           tetragonal
_symmetry_space_group_name_H-M   'I 41 m d'
_symmetry_Int_Tables_number      109
_space_group_name_Hall           'I 4bw -2'
loop_
_symmetry_equiv_pos_site_id
_symmetry_equiv_pos_as_xyz
1 x,y,z
2 1/2-x,1/2+y,1/2+z
3 -y,1/2+x,1/4+z
4 1/2-y,-x,3/4+z
5 y,1/2+x,1/4+z
6 1/2+y,-x,3/4+z
7 x,-y,z
8 1/2-x,1/2-y,1/2+z
9 1/2+x,1/2+y,1/2+z
10 -x,y,z
11 1/2-y,x,3/4+z
12 -y,1/2-x,1/4+z
13 1/2+y,x,3/4+z
14 y,1/2-x,1/4+z
15 1/2+x,1/2-y,1/2+z
16 -x,-y,z
_cell_length_a                   20.97988(17)
_cell_length_b                   20.97988(17)
_cell_length_c                   10.70096(11)
_cell_angle_alpha                90
_cell_angle_beta                 90
_cell_angle_gamma                90
_cell_volume                     4710.08
loop_
_atom_site_label
_atom_site_type_symbol
_atom_site_fract_x
_atom_site_fract_y
_atom_site_fract_z
_atom_site_U_iso_or_equiv
_atom_site_thermal_displace_type
Al1 Al 0.2539(4) 0.3144(3) 0.2545(11) 0.0025 Uiso
O1 O 0.2526(7) 0.2554(7) 0.3811(15) 0.0025 Uiso
O2 O 0.1919(6) 0.3446(7) -0.0192(14) 0.0025 Uiso
O3 O 0.2551(7) 0.3810(7) 0.1294(14) 0.0025 Uiso
C1 C 0.2289(10) 0.3867(13) 0.0238(19) 0.0025 Uiso
C2 C 0.2240(10) 0.4499(10) -0.0472(19) 0.0025 Uiso
C3 C 0.2092(8) 0.4665(8) -0.1699(14) 0.0025 Uiso
O4 O 0.2388(8) 0.500 0.0319(14) 0.0025 Uiso
O5 O 0.1623(6) 0.3236(7) 0.2767(16) 0.0025 Uiso
O6 O 0.1150(7) 0.2654(7) 0.1183(12) 0.0025 Uiso
C4 C 0.1176(10) 0.3017(10) 0.2122(19) 0.0025 Uiso
C5 C 0.0509(10) 0.3238(8) 0.255(2) 0.0025 Uiso
C6 C 0.0342(8) 0.3537(8) 0.3649(19) 0.0025 Uiso
O7 O 0.000 0.2970(9) 0.1897(18) 0.0025 Uiso
O2F O 0.1919(6) 0.6554(7) -0.0192(14) 0.0025 Uiso
O3F O 0.2551(7) 0.6190(7) 0.1294(14) 0.0025 Uiso
C1F C 0.2289(10) 0.6133(13) 0.0238(19) 0.0025 Uiso
C2F C 0.2240(10) 0.5501(10) -0.0472(19) 0.0025 Uiso
C3F C 0.2092(8) 0.5335(8) -0.1699(14) 0.0025 Uiso
O5I O -0.1623(6) 0.3236(7) 0.2767(16) 0.0025 Uiso
O6I O -0.1150(7) 0.2654(7) 0.1183(12) 0.0025 Uiso
C4I C -0.1176(10) 0.3017(10) 0.2122(19) 0.0025 Uiso
C5I C -0.0509(10) 0.3238(8) 0.255(2) 0.0025 Uiso
C6I C -0.0342(8) 0.3537(8) 0.3649(19) 0.0025 Uiso
Al1F Al 0.2539(4) 0.6856(3) 0.2545(11) 0.0025 Uiso
O1F O 0.2526(7) 0.7446(7) 0.3811(15) 0.0025 Uiso
Al1C Al 0.1856(3) 0.7461(4) 0.0045(11) 0.0025 Uiso
Al1D Al 0.3144(3) 0.7539(4) 0.5045(11) 0.0025 Uiso
Al1I Al -0.2539(4) 0.3144(3) 0.2545(11) 0.0025 Uiso
Al1J Al 0.1856(3) 0.2539(4) 0.0045(11) 0.0025 Uiso
Al1L Al -0.1856(3) 0.2539(4) 0.0045(11) 0.0025 Uiso
Al1M Al 0.3144(3) 0.2461(4) 0.5045(11) 0.0025 Uiso
O1C O 0.2446(7) 0.7474(7) 0.1311(15) 0.0025 Uiso
O1J O 0.2446(7) 0.2526(7) 0.1311(15) 0.0025 Uiso
O2D O 0.3446(7) 0.6919(6) 0.2308(14) 0.0025 Uiso
O2M O 0.3446(7) 0.3081(6) 0.2308(14) 0.0025 Uiso
O5F O 0.1623(6) 0.6764(7) 0.2767(16) 0.0025 Uiso
O6D O 0.2654(7) 0.6150(7) 0.3683(12) 0.0025 Uiso
O6M O 0.2654(7) 0.3850(7) 0.3683(12) 0.0025 Uiso

#END
